12
benzene
H         -2.58211       -1.47279       -0.00682
C         -1.88880       -0.62561       -0.00377
C         -2.37841        0.67404       -0.08436
H         -3.45687        0.84974       -0.15086
C         -1.49741        1.75065       -0.08056
H         -1.88267        2.77335       -0.14406
C         -0.12685        1.52775        0.00386
H          0.56638        2.37494        0.00685
C          0.36272        0.22811        0.08440
H          1.44121        0.05270        0.15071
C         -0.51824       -0.84852        0.08061
H         -0.13304       -1.87121        0.14399
