24

O          4.59506        0.44106       -3.18607
C          4.05938        0.72532       -1.89257
C          2.98776       -0.30438       -1.50340
O          1.91330       -0.23175       -2.44604
C          0.85139       -1.11865       -2.16127
O         -0.18177       -0.90552       -3.11301
C          1.33510       -2.58932       -2.18448
O          0.27087       -3.51063       -1.92486
C          2.46110       -2.74119       -1.15473
O          3.00118       -4.06417       -1.13001
C          3.58139       -1.71941       -1.41795
O          4.55971       -1.75973       -0.36979
H          5.16453        1.19425       -3.42069
H          3.61335        1.72785       -1.93053
H          4.88306        0.73137       -1.17545
H          2.60456       -0.01108       -0.51419
H          0.41460       -0.88077       -1.18320
H          0.04931       -1.42082       -3.90159
H          1.71521       -2.84259       -3.18064
H          0.08274       -3.51136       -0.97050
H          2.05939       -2.58506       -0.14388
H          3.30065       -4.28731       -2.03033
H          4.08740       -1.99062       -2.35084
H          4.30606       -2.46202        0.25763
