24

C         -3.05938       -3.21987        0.72725
N         -4.16473       -3.37773        1.50103
O         -4.09462       -2.71557        2.76828
P         -2.89848       -3.15224        3.79443
S         -1.38288       -2.34994        2.64644
C         -1.80899       -2.78556        1.00485
C         -0.73339       -2.67949       -0.05568
C          0.42871       -3.68938        0.06469
O          1.21780       -3.42398        1.23177
C          0.03967       -5.17720        0.08063
C         -0.71431       -5.69635       -1.15397
I          0.52239       -5.56703       -2.95916
C         -1.09584       -7.16870       -0.97145
H         -3.20027       -3.51007       -0.31360
H         -0.32054       -1.66251       -0.02114
H         -1.18046       -2.78232       -1.05277
H          1.10831       -3.50409       -0.77306
H          0.59060       -3.35347        1.97817
H         -0.56338       -5.37234        0.97735
H          0.95274       -5.76943        0.23428
H         -1.62604       -5.11610       -1.32373
H         -0.21026       -7.80096       -0.83274
H         -1.64183       -7.54723       -1.84341
H         -1.74008       -7.29709       -0.09483
