9

C          1.38296        0.71961        0.00140
C          0.10409        1.23203       -0.00494
S         -1.08316       -0.00090       -0.00999
C          0.11198       -1.22614       -0.00521
C          1.38752       -0.70558        0.00147
H          2.27214        1.33793        0.00541
H         -0.19362        2.27159       -0.00668
H         -0.17913       -2.26757       -0.00725
H          2.28065       -1.31820        0.00587
